Alimentador_BandeirantesPR/CargaMT_DiaUtil807560002_M4.dss
New Load.MT_1283.0_M2UB Bus1=MT949.1.2.3 Phases=3 Conn=Delta Model=2 kV=13.8 kW=0.07 pf=0.92 Vminpu=0.93 Vmaxpu=1.50 daily=MT_2_Dia_Util  status=variable 
New Load.MT_1283.0_M3UB Bus1=MT949.1.2.3 Phases=3 Conn=Delta Model=3 kV=13.8 kW=0.07 pf=0.92 Vminpu=0.93 Vmaxpu=1.50 daily=MT_2_Dia_Util  status=variable 
New Load.MT_1284.0_M2UB Bus1=MT970.1.2.3 Phases=3 Conn=Delta Model=2 kV=13.8 kW=0 pf=0.92 Vminpu=0.93 Vmaxpu=1.50 daily=MT_1_Dia_Util  status=variable 
New Load.MT_1284.0_M3UB Bus1=MT970.1.2.3 Phases=3 Conn=Delta Model=3 kV=13.8 kW=0 pf=0.92 Vminpu=0.93 Vmaxpu=1.50 daily=MT_1_Dia_Util  status=variable 
New Load.MT_1285.0_M2UB Bus1=MT47.1.2.3 Phases=3 Conn=Delta Model=2 kV=13.8 kW=0.176 pf=0.92 Vminpu=0.93 Vmaxpu=1.50 daily=MT_2_Dia_Util  status=variable 
New Load.MT_1285.0_M3UB Bus1=MT47.1.2.3 Phases=3 Conn=Delta Model=3 kV=13.8 kW=0.176 pf=0.92 Vminpu=0.93 Vmaxpu=1.50 daily=MT_2_Dia_Util  status=variable 
New Load.MT_1299.0_M2NU Bus1=MT720.1.2.3 Phases=3 Conn=Delta Model=2 kV=13.8 kW=0 pf=0.92 Vminpu=0.93 Vmaxpu=1.50 daily=MT_4_Dia_Util  status=variable 
New Load.MT_1299.0_M3NU Bus1=MT720.1.2.3 Phases=3 Conn=Delta Model=3 kV=13.8 kW=0 pf=0.92 Vminpu=0.93 Vmaxpu=1.50 daily=MT_4_Dia_Util  status=variable 
New Load.MT_2102.0_M2UB Bus1=MT833.1.2.3 Phases=3 Conn=Delta Model=2 kV=13.8 kW=0 pf=0.92 Vminpu=0.93 Vmaxpu=1.50 daily=MT_6_Dia_Util  status=variable 
New Load.MT_2102.0_M3UB Bus1=MT833.1.2.3 Phases=3 Conn=Delta Model=3 kV=13.8 kW=0 pf=0.92 Vminpu=0.93 Vmaxpu=1.50 daily=MT_6_Dia_Util  status=variable 
New Load.MT_2779.0_M2UB Bus1=MT47.1.2.3 Phases=3 Conn=Delta Model=2 kV=13.8 kW=6.307 pf=0.92 Vminpu=0.93 Vmaxpu=1.50 daily=MT_5_Dia_Util  status=variable 
New Load.MT_2779.0_M3UB Bus1=MT47.1.2.3 Phases=3 Conn=Delta Model=3 kV=13.8 kW=6.307 pf=0.92 Vminpu=0.93 Vmaxpu=1.50 daily=MT_5_Dia_Util  status=variable 
New Load.MT_3512.0_M2UB Bus1=MT78.1.2.3 Phases=3 Conn=Delta Model=2 kV=13.8 kW=0.366 pf=0.92 Vminpu=0.93 Vmaxpu=1.50 daily=MT_3_Dia_Util  status=variable 
New Load.MT_3512.0_M3UB Bus1=MT78.1.2.3 Phases=3 Conn=Delta Model=3 kV=13.8 kW=0.366 pf=0.92 Vminpu=0.93 Vmaxpu=1.50 daily=MT_3_Dia_Util  status=variable 
New Load.MT_3971.0_M2UB Bus1=MT80.1.2.3 Phases=3 Conn=Delta Model=2 kV=13.8 kW=6.133 pf=0.92 Vminpu=0.93 Vmaxpu=1.50 daily=MT_2_Dia_Util  status=variable 
New Load.MT_3971.0_M3UB Bus1=MT80.1.2.3 Phases=3 Conn=Delta Model=3 kV=13.8 kW=6.133 pf=0.92 Vminpu=0.93 Vmaxpu=1.50 daily=MT_2_Dia_Util  status=variable 
New Load.MT_5188.0_M2UB Bus1=MT98.1.2.3 Phases=3 Conn=Delta Model=2 kV=13.8 kW=0.156 pf=0.92 Vminpu=0.93 Vmaxpu=1.50 daily=MT_1_Dia_Util  status=variable 
New Load.MT_5188.0_M3UB Bus1=MT98.1.2.3 Phases=3 Conn=Delta Model=3 kV=13.8 kW=0.156 pf=0.92 Vminpu=0.93 Vmaxpu=1.50 daily=MT_1_Dia_Util  status=variable 
New Load.MT_6297.0_M2UB Bus1=MT98.1.2.3 Phases=3 Conn=Delta Model=2 kV=13.8 kW=0.158 pf=0.92 Vminpu=0.93 Vmaxpu=1.50 daily=MT_2_Dia_Util  status=variable 
New Load.MT_6297.0_M3UB Bus1=MT98.1.2.3 Phases=3 Conn=Delta Model=3 kV=13.8 kW=0.158 pf=0.92 Vminpu=0.93 Vmaxpu=1.50 daily=MT_2_Dia_Util  status=variable 
New Load.MT_6903.0_M2UB Bus1=MT1213.1.2.3 Phases=3 Conn=Delta Model=2 kV=13.8 kW=0 pf=0.92 Vminpu=0.93 Vmaxpu=1.50 daily=MT_5_Dia_Util  status=variable 
New Load.MT_6903.0_M3UB Bus1=MT1213.1.2.3 Phases=3 Conn=Delta Model=3 kV=13.8 kW=0 pf=0.92 Vminpu=0.93 Vmaxpu=1.50 daily=MT_5_Dia_Util  status=variable 
New Load.MT_8818.0_M2UB Bus1=MT1213.1.2.3 Phases=3 Conn=Delta Model=2 kV=13.8 kW=34.124 pf=0.92 Vminpu=0.93 Vmaxpu=1.50 daily=MT_2_Dia_Util  status=variable 
New Load.MT_8818.0_M3UB Bus1=MT1213.1.2.3 Phases=3 Conn=Delta Model=3 kV=13.8 kW=34.124 pf=0.92 Vminpu=0.93 Vmaxpu=1.50 daily=MT_2_Dia_Util  status=variable 
New Load.MT_9231.0_M2UB Bus1=MT925.1.2.3 Phases=3 Conn=Delta Model=2 kV=13.8 kW=0.037 pf=0.92 Vminpu=0.93 Vmaxpu=1.50 daily=MT_2_Dia_Util  status=variable 
New Load.MT_9231.0_M3UB Bus1=MT925.1.2.3 Phases=3 Conn=Delta Model=3 kV=13.8 kW=0.037 pf=0.92 Vminpu=0.93 Vmaxpu=1.50 daily=MT_2_Dia_Util  status=variable 
New Load.MT_10360._M2UB Bus1=MT2084.1.2.3 Phases=3 Conn=Delta Model=2 kV=13.8 kW=41.094 pf=0.92 Vminpu=0.93 Vmaxpu=1.50 daily=MT_2_Dia_Util  status=variable 
New Load.MT_10360._M3UB Bus1=MT2084.1.2.3 Phases=3 Conn=Delta Model=3 kV=13.8 kW=41.094 pf=0.92 Vminpu=0.93 Vmaxpu=1.50 daily=MT_2_Dia_Util  status=variable 
New Load.MT_10804._M2UB Bus1=MT949.1.2.3 Phases=3 Conn=Delta Model=2 kV=13.8 kW=9.548 pf=0.92 Vminpu=0.93 Vmaxpu=1.50 daily=MT_2_Dia_Util  status=variable 
New Load.MT_10804._M3UB Bus1=MT949.1.2.3 Phases=3 Conn=Delta Model=3 kV=13.8 kW=9.548 pf=0.92 Vminpu=0.93 Vmaxpu=1.50 daily=MT_2_Dia_Util  status=variable 
New Load.MT_11205._M2UB Bus1=MT1344.1.2.3 Phases=3 Conn=Delta Model=2 kV=13.8 kW=44.627 pf=0.92 Vminpu=0.93 Vmaxpu=1.50 daily=MT_2_Dia_Util  status=variable 
New Load.MT_11205._M3UB Bus1=MT1344.1.2.3 Phases=3 Conn=Delta Model=3 kV=13.8 kW=44.627 pf=0.92 Vminpu=0.93 Vmaxpu=1.50 daily=MT_2_Dia_Util  status=variable 
New Load.MT_11225._M2UB Bus1=MT925.1.2.3 Phases=3 Conn=Delta Model=2 kV=13.8 kW=11.943 pf=0.92 Vminpu=0.93 Vmaxpu=1.50 daily=MT_3_Dia_Util  status=variable 
New Load.MT_11225._M3UB Bus1=MT925.1.2.3 Phases=3 Conn=Delta Model=3 kV=13.8 kW=11.943 pf=0.92 Vminpu=0.93 Vmaxpu=1.50 daily=MT_3_Dia_Util  status=variable 
New Load.MT_16362._M2UB Bus1=MT1912.1.2.3 Phases=3 Conn=Delta Model=2 kV=13.8 kW=9.78 pf=0.92 Vminpu=0.93 Vmaxpu=1.50 daily=MT_2_Dia_Util  status=variable 
New Load.MT_16362._M3UB Bus1=MT1912.1.2.3 Phases=3 Conn=Delta Model=3 kV=13.8 kW=9.78 pf=0.92 Vminpu=0.93 Vmaxpu=1.50 daily=MT_2_Dia_Util  status=variable 
New Load.MT_16769._M2UB Bus1=MT1902.1.2.3 Phases=3 Conn=Delta Model=2 kV=13.8 kW=0 pf=0.92 Vminpu=0.93 Vmaxpu=1.50 daily=MT_4_Dia_Util  status=variable 
New Load.MT_16769._M3UB Bus1=MT1902.1.2.3 Phases=3 Conn=Delta Model=3 kV=13.8 kW=0 pf=0.92 Vminpu=0.93 Vmaxpu=1.50 daily=MT_4_Dia_Util  status=variable 
New Load.MT_19949._M2UB Bus1=MT1948.1.2.3 Phases=3 Conn=Delta Model=2 kV=13.8 kW=95.288 pf=0.92 Vminpu=0.93 Vmaxpu=1.50 daily=MT_3_Dia_Util  status=variable 
New Load.MT_19949._M3UB Bus1=MT1948.1.2.3 Phases=3 Conn=Delta Model=3 kV=13.8 kW=95.288 pf=0.92 Vminpu=0.93 Vmaxpu=1.50 daily=MT_3_Dia_Util  status=variable 
